162
Lattice="7.65796644025031 0.0 0.0 0.0 13.263986957170907 0.0 0.0 0.0 18.75811024597094" Properties=species:S:1:pos:R:3 pbc="T T T"
Cu       0.24500000       0.00000000      -0.06650000
Cu       0.24500000       1.47377633       3.03900936
Cu       0.24500000       2.94755266       6.14451873
Cu       0.89592715       0.73688816       5.68886972
Cu       0.89592715       2.21066449      -0.52214900
Cu       0.89592715       3.68444082       2.58336036
Cu       1.54685429      -0.00000000      -0.97779801
Cu       1.54685429       1.47377633       2.12771136
Cu       1.54685429       2.94755266       5.23322072
Cu       2.19778144       0.73688816       4.77757172
Cu       2.19778144       2.21066449      -1.43344701
Cu       2.19778144       3.68444082       1.67206235
Cu       2.84870859      -0.00000000      -1.88909601
Cu       2.84870859       1.47377633       1.21641335
Cu       2.84870859       2.94755266       4.32192271
Cu       3.49963574       0.73688816       3.86627371
Cu       3.49963574       2.21066449      -2.34474502
Cu       3.49963574       3.68444082       0.76076435
Cu       0.24500000       4.42132899      -0.06650000
Cu       0.24500000       5.89510531       3.03900936
Cu       0.24500000       7.36888164       6.14451873
Cu       0.89592715       5.15821715       5.68886972
Cu       0.89592715       6.63199348      -0.52214900
Cu       0.89592715       8.10576981       2.58336036
Cu       1.54685429       4.42132899      -0.97779801
Cu       1.54685429       5.89510531       2.12771136
Cu       1.54685429       7.36888164       5.23322072
Cu       2.19778144       5.15821715       4.77757172
Cu       2.19778144       6.63199348      -1.43344701
Cu       2.19778144       8.10576981       1.67206235
Cu       2.84870859       4.42132899      -1.88909601
Cu       2.84870859       5.89510531       1.21641335
Cu       2.84870859       7.36888164       4.32192271
Cu       3.49963574       5.15821715       3.86627371
Cu       3.49963574       6.63199348      -2.34474502
Cu       3.49963574       8.10576981       0.76076435
Cu       0.24500000       8.84265797      -0.06650000
Cu       0.24500000      10.31643430       3.03900936
Cu       0.24500000      11.79021063       6.14451873
Cu       0.89592715       9.57954614       5.68886972
Cu       0.89592715      11.05332246      -0.52214900
Cu       0.89592715      12.52709879       2.58336036
Cu       1.54685429       8.84265797      -0.97779801
Cu       1.54685429      10.31643430       2.12771136
Cu       1.54685429      11.79021063       5.23322072
Cu       2.19778144       9.57954614       4.77757172
Cu       2.19778144      11.05332246      -1.43344701
Cu       2.19778144      12.52709879       1.67206235
Cu       2.84870859       8.84265797      -1.88909601
Cu       2.84870859      10.31643430       1.21641335
Cu       2.84870859      11.79021063       4.32192271
Cu       3.49963574       9.57954614       3.86627371
Cu       3.49963574      11.05332246      -2.34474502
Cu       3.49963574      12.52709879       0.76076435
Cu       0.24500000      -0.00000000       9.25002809
Cu       0.24500000       1.47377633      12.35553745
Cu       0.24500000       2.94755266      15.46104681
Cu       0.89592715       0.73688816      15.00539781
Cu       0.89592715       2.21066449       8.79437909
Cu       0.89592715       3.68444082      11.89988845
Cu       1.54685429      -0.00000000       8.33873008
Cu       1.54685429       1.47377633      11.44423945
Cu       1.54685429       2.94755266      14.54974881
Cu       2.19778144       0.73688816      14.09409981
Cu       2.19778144       2.21066449       7.88308108
Cu       2.19778144       3.68444082      10.98859044
Cu       2.84870859      -0.00000000       7.42743208
Cu       2.84870859       1.47377633      10.53294144
Cu       2.84870859       2.94755266      13.63845080
Cu       3.49963574       0.73688816      13.18280180
Cu       3.49963574       2.21066449       6.97178307
Cu       3.49963574       3.68444082      10.07729244
Cu       0.24500000       4.42132899       9.25002809
Cu       0.24500000       5.89510531      12.35553745
Cu       0.24500000       7.36888164      15.46104681
Cu       0.89592715       5.15821715      15.00539781
Cu       0.89592715       6.63199348       8.79437909
Cu       0.89592715       8.10576981      11.89988845
Cu       1.54685429       4.42132899       8.33873008
Cu       1.54685429       5.89510531      11.44423945
Cu       1.54685429       7.36888164      14.54974881
Cu       2.19778144       5.15821715      14.09409981
Cu       2.19778144       6.63199348       7.88308108
Cu       2.19778144       8.10576981      10.98859044
Cu       2.84870859       4.42132899       7.42743208
Cu       2.84870859       5.89510531      10.53294144
Cu       2.84870859       7.36888164      13.63845080
Cu       3.49963574       5.15821715      13.18280180
Cu       3.49963574       6.63199348       6.97178307
Cu       3.49963574       8.10576981      10.07729244
Cu       0.24500000       8.84265797       9.25002809
Cu       0.24500000      10.31643430      12.35553745
Cu       0.24500000      11.79021063      15.46104681
Cu       0.89592715       9.57954614      15.00539781
Cu       0.89592715      11.05332246       8.79437909
Cu       0.89592715      12.52709879      11.89988845
Cu       1.54685429       8.84265797       8.33873008
Cu       1.54685429      10.31643430      11.44423945
Cu       1.54685429      11.79021063      14.54974881
Cu       2.19778144       9.57954614      14.09409981
Cu       2.19778144      11.05332246       7.88308108
Cu       2.19778144      12.52709879      10.98859044
Cu       2.84870859       8.84265797       7.42743208
Cu       2.84870859      10.31643430      10.53294144
Cu       2.84870859      11.79021063      13.63845080
Cu       3.49963574       9.57954614      13.18280180
Cu       3.49963574      11.05332246       6.97178307
Cu       3.49963574      12.52709879      10.07729244
Cu       0.24500000      -0.00000000      18.56655618
Cu       0.24500000       1.47377633      21.67206554
Cu       0.24500000       2.94755266      24.77757490
Cu       0.89592715       0.73688816      24.32192590
Cu       0.89592715       2.21066449      18.11090717
Cu       0.89592715       3.68444082      21.21641654
Cu       1.54685429      -0.00000000      17.65525817
Cu       1.54685429       1.47377633      20.76076753
Cu       1.54685429       2.94755266      23.86627690
Cu       2.19778144       0.73688816      23.41062789
Cu       2.19778144       2.21066449      17.19960917
Cu       2.19778144       3.68444082      20.30511853
Cu       2.84870859      -0.00000000      16.74396016
Cu       2.84870859       1.47377633      19.84946953
Cu       2.84870859       2.94755266      22.95497889
Cu       3.49963574       0.73688816      22.49932989
Cu       3.49963574       2.21066449      16.28831116
Cu       3.49963574       3.68444082      19.39382052
Cu       0.24500000       4.42132899      18.56655618
Cu       0.24500000       5.89510531      21.67206554
Cu       0.24500000       7.36888164      24.77757490
Cu       0.89592715       5.15821715      24.32192590
Cu       0.89592715       6.63199348      18.11090717
Cu       0.89592715       8.10576981      21.21641654
Cu       1.54685429       4.42132899      17.65525817
Cu       1.54685429       5.89510531      20.76076753
Cu       1.54685429       7.36888164      23.86627690
Cu       2.19778144       5.15821715      23.41062789
Cu       2.19778144       6.63199348      17.19960917
Cu       2.19778144       8.10576981      20.30511853
Cu       2.84870859       4.42132899      16.74396016
Cu       2.84870859       5.89510531      19.84946953
Cu       2.84870859       7.36888164      22.95497889
Cu       3.49963574       5.15821715      22.49932989
Cu       3.49963574       6.63199348      16.28831116
Cu       3.49963574       8.10576981      19.39382052
Cu       0.24500000       8.84265797      18.56655618
Cu       0.24500000      10.31643430      21.67206554
Cu       0.24500000      11.79021063      24.77757490
Cu       0.89592715       9.57954614      24.32192590
Cu       0.89592715      11.05332246      18.11090717
Cu       0.89592715      12.52709879      21.21641654
Cu       1.54685429       8.84265797      17.65525817
Cu       1.54685429      10.31643430      20.76076753
Cu       1.54685429      11.79021063      23.86627690
Cu       2.19778144       9.57954614      23.41062789
Cu       2.19778144      11.05332246      17.19960917
Cu       2.19778144      12.52709879      20.30511853
Cu       2.84870859       8.84265797      16.74396016
Cu       2.84870859      10.31643430      19.84946953
Cu       2.84870859      11.79021063      22.95497889
Cu       3.49963574       9.57954614      22.49932989
Cu       3.49963574      11.05332246      16.28831116
Cu       3.49963574      12.52709879      19.39382052
